Circuit: * C:\Data\Labs\SchemaTech\demux_test.asc

WARNING: Node X1:X1:NC_01 is floating.
WARNING: Node X1:X1:NC_02 is floating.
WARNING: Node X1:X2:NC_01 is floating.
WARNING: Node X1:X2:NC_02 is floating.
WARNING: Node X1:X3:NC_01 is floating.
WARNING: Node X1:X3:NC_02 is floating.
WARNING: Node X1:X4:NC_01 is floating.
WARNING: Node X1:X4:NC_02 is floating.
WARNING: Node X1:X7:NC_01 is floating.
WARNING: Node X1:X7:NC_02 is floating.
WARNING: Node X1:X8:NC_01 is floating.
WARNING: Node X1:X8:NC_02 is floating.
WARNING: Node X1:X9:NC_01 is floating.
WARNING: Node X1:X9:NC_02 is floating.
WARNING: Node X1:X10:NC_01 is floating.
WARNING: Node X1:X10:NC_02 is floating.
WARNING: Node X1:X11:NC_01 is floating.
WARNING: Node X1:X11:NC_02 is floating.
WARNING: Node X1:X6:NC_01 is floating.
WARNING: Node X1:X6:NC_02 is floating.
WARNING: Node X1:X5:NC_01 is floating.
WARNING: Node X1:X5:NC_02 is floating.
WARNING: Node X1:X12:NC_01 is floating.
WARNING: Node X1:X12:NC_02 is floating.
WARNING: Node X1:X13:NC_01 is floating.
WARNING: Node X1:X13:NC_02 is floating.
WARNING: Node X1:X14:NC_01 is floating.
WARNING: Node X1:X14:NC_02 is floating.
WARNING: Node X1:X15:NC_01 is floating.
WARNING: Node X1:X15:NC_02 is floating.

WARNING: Less than two connections to node X1:X1:NC_01.  This node is used by M:X1:X1:3.
WARNING: Less than two connections to node X1:X1:NC_02.  This node is used by M:X1:X1:4.
WARNING: Less than two connections to node X1:X2:NC_01.  This node is used by M:X1:X2:3.
WARNING: Less than two connections to node X1:X2:NC_02.  This node is used by M:X1:X2:4.
WARNING: Less than two connections to node X1:X3:NC_01.  This node is used by M:X1:X3:3.
WARNING: Less than two connections to node X1:X3:NC_02.  This node is used by M:X1:X3:4.
WARNING: Less than two connections to node X1:X4:NC_01.  This node is used by M:X1:X4:3.
WARNING: Less than two connections to node X1:X4:NC_02.  This node is used by M:X1:X4:4.
WARNING: Less than two connections to node X1:X7:NC_01.  This node is used by M:X1:X7:3.
WARNING: Less than two connections to node X1:X7:NC_02.  This node is used by M:X1:X7:4.
WARNING: Less than two connections to node X1:X8:NC_01.  This node is used by M:X1:X8:3.
WARNING: Less than two connections to node X1:X8:NC_02.  This node is used by M:X1:X8:4.
WARNING: Less than two connections to node X1:X9:NC_01.  This node is used by M:X1:X9:3.
WARNING: Less than two connections to node X1:X9:NC_02.  This node is used by M:X1:X9:4.
WARNING: Less than two connections to node X1:X10:NC_01.  This node is used by M:X1:X10:3.
WARNING: Less than two connections to node X1:X10:NC_02.  This node is used by M:X1:X10:4.
WARNING: Less than two connections to node X1:X11:NC_01.  This node is used by M:X1:X11:3.
WARNING: Less than two connections to node X1:X11:NC_02.  This node is used by M:X1:X11:4.
WARNING: Less than two connections to node X1:X6:NC_01.  This node is used by M:X1:X6:3.
WARNING: Less than two connections to node X1:X6:NC_02.  This node is used by M:X1:X6:4.
WARNING: Less than two connections to node X1:X5:NC_01.  This node is used by M:X1:X5:3.
WARNING: Less than two connections to node X1:X5:NC_02.  This node is used by M:X1:X5:4.
WARNING: Less than two connections to node X1:X12:NC_01.  This node is used by M:X1:X12:3.
WARNING: Less than two connections to node X1:X12:NC_02.  This node is used by M:X1:X12:4.
WARNING: Less than two connections to node X1:X13:NC_01.  This node is used by M:X1:X13:3.
WARNING: Less than two connections to node X1:X13:NC_02.  This node is used by M:X1:X13:4.
WARNING: Less than two connections to node X1:X14:NC_01.  This node is used by M:X1:X14:3.
WARNING: Less than two connections to node X1:X14:NC_02.  This node is used by M:X1:X14:4.
WARNING: Less than two connections to node X1:X15:NC_01.  This node is used by M:X1:X15:3.
WARNING: Less than two connections to node X1:X15:NC_02.  This node is used by M:X1:X15:4.
Direct Newton iteration for .op point succeeded.
Heightened Def Con from 3e-008 to 3e-008

Date: Thu May 04 22:13:29 2023
Total elapsed time: 5.499 seconds.

tnom = 27
temp = 27
method = modified trap
totiter = 101622
traniter = 101583
tranpoints = 50454
accept = 50382
rejected = 73
matrix size = 308
fillins = 168
solver = Normal
Thread vector: 69.0/48.3[6] 12.8/3.6[6] 4.5/2.3[6] 1.1/1.4[1]  2592/500
Matrix Compiler1: 55.52 KB object code size  12.8/5.2/[3.6]
Matrix Compiler2: 39.47 KB object code size  5.0/4.6/[1.8]

