Circuit: * C:\Data\Labs\SchemaTech\NOR_test.asc

WARNING: Node X1:NC_01 is floating.
WARNING: Node X1:NC_02 is floating.

WARNING: Less than two connections to node X1:NC_01.  This node is used by M:X1:3.
WARNING: Less than two connections to node X1:NC_02.  This node is used by M:X1:4.
Direct Newton iteration for .op point succeeded.

Date: Thu May 04 22:09:55 2023
Total elapsed time: 1.070 seconds.

tnom = 27
temp = 27
method = modified trap
totiter = 101371
traniter = 101355
tranpoints = 50581
accept = 50524
rejected = 57
matrix size = 26
fillins = 6
solver = Normal
Matrix Compiler1: 2.85 KB object code size  0.5/0.2/[0.2]
Matrix Compiler2: 2.86 KB object code size  0.3/0.3/[0.2]

